#HF/6-31G EMTP Angstrom

&MOL
DIFORMAMIDE I

0 1
H              0.000000       0.000000       4.195233
N              0.000000       0.000000       3.179418
C              0.000000       1.251079       2.550721
C              0.000000      -1.251079       2.550721
H              0.000000       2.077495       3.288693
H              0.000000      -2.077495       3.288693
O              0.000000       1.433033       1.344588
O              0.000000      -1.433033       1.344588

&MOL
DIFORMAMIDE II

0 1
H              0.000000       0.000000      -0.301699
N              0.000000       0.000000      -1.321275
C              0.000000       1.254367      -1.939228
C              0.000000      -1.254367      -1.939228
H              0.000000       2.060112      -1.177507
H              0.000000      -2.060112      -1.177507
O              0.000000       1.469162      -3.141392
O              0.000000      -1.469162      -3.141392

&END




