# HF/sto-3g mtp=camm trans 

&MOL
METHANOL
DMATRIX=td.log

0 1
O         -0.43268        1.92920       -0.16300
H          0.52220        2.15843       -0.09144
C         -1.13800        3.15073       -0.04105
H         -2.21074        2.94789       -0.06514
H         -0.87394        3.80831       -0.87297
H         -0.88115        3.62713        0.90855
&END
