# RHF/6-31G  EINT=CAMM,ESP,EELEDS mpoints=100 

&MOL
METHANOLE

0 1
O          1.94352        3.90597       -0.01634
C          3.10985        3.09772       -0.01531
H          2.19246        4.74629       -0.44140
H          2.87150        2.12542        0.41981
H          3.88467        3.58106        0.58480
H          3.46038        2.96179       -1.04136

&MOL
AMINOETANAL

0 1
N         -0.67349        2.48031       -0.37183
H          0.34258        2.65518       -0.36650
H         -1.08649        3.40789       -0.29821
C         -1.00189        1.70637        0.82412
C         -0.16558        0.44057        0.91539
H         -2.05561        1.41542        0.78686
H         -0.82858        2.29422        1.73035
O          0.91113        0.25239        0.35447
H         -0.56033       -0.31574        1.61568

&END
