#HF/6-31G** eint=CAMMs,ESP mpoints=10 pot=CAMM

&MOL
NH3

0 1
N          1.74255        1.66277        0.64019
H          2.65514        1.28877        0.36292
H          1.86554        2.67852        0.62003
H          1.66089        1.42925        1.63284


&MOL 
H2O

0 1
O          0.00560        0.53892       -1.24338
H          0.67353        0.91132       -0.62397
H         -0.82070        0.80348       -0.81432


&END
