#HF/6-31G EINT=EELEDS mpoints=10000 

&MOL
H2O 1

0 1
O         -0.08624        1.47392       -0.00000
H          0.82773        1.14273       -0.00000
H          0.03496        2.43917       -0.00000

&MOL
H2O 2

0 1
O         -2.25817       -0.21792        0.00000
H         -1.40799        0.27511        0.00000
H         -2.89792        0.50935       -0.00000

&END
